Version 4
SHEET 1 944 820
WIRE 496 -16 496 -32
WIRE -48 0 -48 -16
WIRE -48 0 -112 0
WIRE 48 0 48 -16
WIRE 384 0 384 -16
WIRE 384 0 304 0
WIRE 816 0 816 -16
WIRE 816 0 720 0
WIRE -112 16 -112 0
WIRE 304 16 304 0
WIRE 720 16 720 0
WIRE -448 112 -448 96
WIRE -304 112 -448 112
WIRE -112 112 -112 96
WIRE -112 112 -144 112
WIRE 48 112 48 80
WIRE 96 112 48 112
WIRE 304 112 304 96
WIRE 304 112 256 112
WIRE 496 112 496 64
WIRE 528 112 496 112
WIRE 720 112 720 96
WIRE 720 112 688 112
WIRE -48 128 -48 0
WIRE 384 128 384 0
WIRE 816 128 816 0
WIRE -448 144 -448 112
WIRE -304 192 -336 192
WIRE -144 192 -160 192
WIRE -112 192 -144 192
WIRE -96 192 -112 192
WIRE 96 192 64 192
WIRE 304 192 256 192
WIRE 336 192 304 192
WIRE 528 192 496 192
WIRE 720 192 688 192
WIRE 768 192 720 192
WIRE -112 208 -112 192
WIRE 304 208 304 192
WIRE 720 208 720 192
WIRE -336 224 -336 192
WIRE 64 224 64 192
WIRE 496 224 496 192
WIRE -448 240 -448 224
WIRE -48 288 -48 192
WIRE -48 288 -112 288
WIRE -16 288 -48 288
WIRE 304 288 64 288
WIRE 384 288 384 192
WIRE 384 288 304 288
WIRE 480 288 384 288
WIRE 720 288 560 288
WIRE 816 288 816 192
WIRE 816 288 720 288
WIRE -112 384 -112 288
WIRE 336 384 -112 384
WIRE 816 384 816 288
WIRE 816 384 416 384
WIRE 16 624 16 592
WIRE 144 624 144 592
WIRE 272 624 272 592
WIRE 16 736 16 704
WIRE 144 736 144 704
WIRE 144 736 16 736
WIRE 272 736 272 704
WIRE 272 736 144 736
WIRE 144 768 144 736
FLAG -336 224 0
FLAG -448 240 0
FLAG 144 768 0
FLAG 16 592 R
FLAG 144 592 S
FLAG 272 592 T
FLAG -48 -16 R
FLAG 384 -16 S
FLAG 64 224 0
FLAG 496 224 0
FLAG 816 -16 T
FLAG -448 96 trigr
FLAG 48 -16 0
FLAG 48 112 trigs
FLAG 496 -32 0
FLAG 496 112 trigt
SYMBOL res -128 0 R0
SYMATTR InstName R1
SYMATTR Value 330
SYMBOL res -128 192 R0
SYMATTR InstName R2
SYMATTR Value 330
SYMBOL TRIAC_Teccor -80 128 R0
SYMATTR InstName U1
SYMBOL LED_TRIAC -256 128 R0
SYMATTR SpiceModel MOC3023
SYMATTR InstName U2
SYMBOL res 80 272 R90
WINDOW 0 0 56 VBottom 2
WINDOW 3 32 56 VTop 2
SYMATTR InstName R3
SYMATTR Value 100
SYMBOL voltage -448 128 R0
WINDOW 3 37 -199 Left 2
WINDOW 123 0 0 Left 2
WINDOW 39 0 0 Left 2
SYMATTR InstName V2
SYMATTR Value PULSE(0 5 5m 10u 10u 0.83m 8.33m)
SYMBOL voltage 16 608 R0
WINDOW 0 32 56 VTop 2
WINDOW 3 87 55 VBottom 2
WINDOW 123 0 0 Left 2
WINDOW 39 0 0 Left 2
SYMATTR InstName V1
SYMATTR Value SINE(0 179.6 60 0 0 0)
SYMBOL voltage 144 608 R0
WINDOW 0 32 56 VTop 2
WINDOW 3 87 55 VBottom 2
WINDOW 123 0 0 Left 2
WINDOW 39 0 0 Left 2
SYMATTR InstName V3
SYMATTR Value SINE(0 179.6 60 0 0 120)
SYMBOL voltage 272 608 R0
WINDOW 0 32 56 VTop 2
WINDOW 3 87 55 VBottom 2
WINDOW 123 0 0 Left 2
WINDOW 39 0 0 Left 2
SYMATTR InstName V4
SYMATTR Value SINE(0 179.6 60 0 0 240)
SYMBOL LED_TRIAC 144 128 R0
SYMATTR SpiceModel MOC3023
SYMATTR InstName U3
SYMBOL res 288 0 R0
SYMATTR InstName R4
SYMATTR Value 330
SYMBOL res 288 192 R0
SYMATTR InstName R5
SYMATTR Value 330
SYMBOL TRIAC_Teccor 352 128 R0
SYMATTR InstName U4
SYMBOL LED_TRIAC 576 128 R0
SYMATTR SpiceModel MOC3023
SYMATTR InstName U5
SYMBOL TRIAC_Teccor 784 128 R0
SYMATTR InstName U6
SYMBOL res 704 192 R0
SYMATTR InstName R6
SYMATTR Value 330
SYMBOL res 704 0 R0
SYMATTR InstName R7
SYMATTR Value 330
SYMBOL res 576 272 R90
WINDOW 0 0 56 VBottom 2
WINDOW 3 32 56 VTop 2
SYMATTR InstName R8
SYMATTR Value 100
SYMBOL res 432 368 R90
WINDOW 0 0 56 VBottom 2
WINDOW 3 32 56 VTop 2
SYMATTR InstName R9
SYMATTR Value 100
SYMBOL voltage 48 96 R180
WINDOW 3 -379 182 Left 2
WINDOW 123 0 0 Left 2
WINDOW 39 0 0 Left 2
SYMATTR InstName V5
SYMATTR Value PULSE(0 5 5m 10u 10u 0.83m 8.33m)
SYMBOL voltage 496 80 R180
WINDOW 3 -362 153 Left 2
WINDOW 123 0 0 Left 2
WINDOW 39 0 0 Left 2
SYMATTR InstName V6
SYMATTR Value PULSE(0 5 5m 10u 10u 0.83m 8.33m)
TEXT 112 -16 Left 2 !.lib tectriac.lib
TEXT -408 272 Left 2 !.INCLUDE MOC302x.lib
TEXT -304 24 Left 2 !.tran 0 60m 0
